7

 N                 -0.44285374   -3.15955490    0.00000000
 H                  0.55670626   -3.18922090    0.00000000
 C                 -1.12980774   -1.88374290    0.00000000
 C                 -0.12528474   -0.74031890    0.00000000
 H                 -1.75464074   -1.80693990   -0.88982300
 H                 -1.75464074   -1.80693990    0.88982300
 O                  1.10872126   -0.98689790    0.00000000
