19

 N                 -2.96867307   -4.62960064    0.00000000
 H                 -1.96911307   -4.65926664    0.00000000
 C                 -3.65562707   -3.35378864    0.00000000
 H                 -4.28046007   -3.27698564   -0.88982300
 C                 -4.52958007   -3.24706064    1.24516700
 C                 -2.66514807   -2.19817764    0.00000000
 H                 -5.26235507   -4.05399364    1.24563400
 C                 -3.65557907   -3.35383264    2.49029600
 C                 -5.25256407   -1.90433264    1.24516700
 O                 -1.42822207   -2.42966264    0.00000000
 H                 -2.92280407   -2.54689964    2.49076300
 H                 -4.27977807   -3.27760464    3.38061300
 H                 -3.13857107   -4.31341764    2.49073600
 H                 -4.52038907   -1.09685564    1.24516700
 H                 -5.87739707   -1.82752864    0.35534400
 C                 -6.12651707   -1.79760364    2.49033300
 H                 -5.50228407   -1.87386364    3.38062400
 H                 -6.64352507   -0.83801964    2.49082800
 H                 -6.85929207   -2.60453664    2.49080100

