16

 N                 -6.40187826   -3.38322700   -0.55219664
 H                 -7.08916777   -2.74443185   -0.89799121
 C                 -5.81433308   -2.84859768    0.68467932
 H                 -5.98995681   -3.53329606    1.48795041
 C                 -4.29796588   -2.66019253    0.49301811
 C                 -6.46240990   -1.49146122    1.01600557
 H                 -4.12234215   -1.97549416   -0.31025297
 H                 -3.87029694   -2.27104058    1.39332919
 H                 -3.84767874   -3.60313800    0.26281092
 O                 -7.35135106   -1.01781977    0.26167279
 N                 -6.08039384   -0.81609184    2.10567580
 H                 -5.37398626   -1.19247458    2.70511250
 C                 -6.69901512    0.47935494    2.42194366
 H                 -5.99391213    1.09392623    2.94158960
 H                 -6.99463158    0.96430395    1.51511657
 H                 -7.55879060    0.32277890    3.03933338

 1 2 1.0 3 1.0
 2
 3 4 1.0 5 1.0 6 1.0
 4
 5 7 1.0 8 1.0 9 1.0
 6 10 2.0 11 1.5
 7
 8
 9
 10
 11 12 1.0 13 1.0
 12
 13 14 1.0 15 1.0 16 1.0
 14
 15
 16

