19

 N                  0.48489817   -3.51924734    0.00000000
 H                  1.48445817   -3.54891334    0.00000000
 C                 -0.20205583   -2.24343534    0.00000000
 H                 -0.82688883   -2.16663234   -0.88982300
 C                 -1.08867883   -2.09731334    1.23214100
 C                  0.78842317   -1.08782434    0.00000000
 H                 -1.83291383   -2.89363534    1.24137300
 H                 -0.47590583   -2.16296134    2.13119600
 C                 -1.79227383   -0.74484634    1.19457400
 O                  2.02534917   -1.31930934    0.00000000
 H                 -1.04863583    0.05203866    1.18579100
 C                 -2.65019783   -0.65294534   -0.06286200
 C                 -2.67889783   -0.59872334    2.42671600
 H                 -3.39442183   -1.44928734   -0.05456500
 H                 -3.15334283    0.31359366   -0.09020700
 H                 -2.01690383   -0.75736234   -0.94384800
 H                 -2.06612383   -0.66437234    3.32577000
 H                 -3.18205383    0.36783666    2.40035800
 H                 -3.42313283   -1.39504534    2.43594700

