6

 N                 -6.08039384   -0.81609184    2.10567580
 H                 -5.23320505   -1.09003771    2.56089531
 C                 -6.69901512    0.47935494    2.42194366
 H                 -6.10735420    0.98783263    3.15426039
 H                 -6.75583449    1.07372169    1.53402490
 H                 -7.68414562    0.31945475    2.80775427
