24

 N                 -3.57979424   -2.90551426    2.09437691
 H                 -2.85696589   -3.59564650    2.05920682
 C                 -3.86241577   -2.09232970    0.92884785
 H                 -4.89497807   -2.24964105    0.61712972
 C                 -3.66525687   -0.61085575    1.23214100
 C                 -2.94401889   -2.45631338   -0.22897272
 H                 -3.36095184   -0.48964865    2.27175967
 H                 -2.89308604   -0.20524864    0.57843206
 C                 -4.89123046    0.24898554    1.03781719
 O                 -2.08276421   -3.36290865   -0.08791728
 C                 -6.10379863   -0.15474531    0.63497567
 C                 -5.00518340    1.63076770    1.23840653
 H                 -6.28100428   -1.20632179    0.40939756
 N                 -6.93986526    1.00481339    0.59872156
 C                 -6.23857377    2.04796002    0.96768828
 C                 -4.03844775    2.55140690    1.66012101
 H                 -7.91385640    1.01749770    0.33173749
 C                 -6.66268457    3.37794300    1.07388102
 C                 -4.44298097    3.89728067    1.77441107
 H                 -3.01252335    2.26876902    1.89611475
 H                 -7.69248932    3.64241783    0.83376480
 C                 -5.70285461    4.29199903    1.49260126
 H                 -3.70324186    4.62795493    2.10152142
 H                 -5.96260111    5.34536314    1.59775003

